data_generated_by_bilbao_crystallographic_server

_cell_length_a                   4.94110111 
_cell_length_b                   4.94110111 
_cell_length_c                   10.98956586 
_cell_angle_alpha                90.00000000 
_cell_angle_beta                 90.00000000 
_cell_angle_gamma                90.00000000        
_symmetry_space_group_name_H-M   'P1' 
_symmetry_Int_Tables_number      1 

loop_
_symmetry_equiv_pos_site_id
_symmetry_equiv_pos_as_xyz
1    'x,y,z'

loop_
_atom_site_label 
_atom_site_type_symbol 
_atom_site_symmetry_multiplicity 
_atom_site_Wyckoff_symbol 
_atom_site_fract_x 
_atom_site_fract_y 
_atom_site_fract_z 
Na0   Na 1 a    0.50000  0.00000  0.75000
Na1   Na 1 a    0.50000  0.50000  0.50000
Na2   Na 1 a    0.00000  0.50000  0.25000
Na3   Na 1 a    0.00000  0.00000  0.00000
Al4   Al 1 a    0.00000  0.50000  0.75000
Al5   Al 1 a    0.00000  0.00000  0.50000
Al6   Al 1 a    0.50000  0.00000  0.25000
Al7   Al 1 a    0.50000  0.50000  0.00000
H8     H 1 a    0.85781  0.76351  0.41898
H9     H 1 a    0.76351  0.64219  0.66898
H10    H 1 a    0.23649  0.35781  0.66898
H11    H 1 a    0.14219  0.23649  0.41898
H12    H 1 a    0.85781  0.26351  0.83102
H13    H 1 a    0.76351  0.14219  0.58102
H14    H 1 a    0.23649  0.85781  0.58102
H15    H 1 a    0.14219  0.73649  0.83102
H16    H 1 a    0.35781  0.26351  0.91898
H17    H 1 a    0.26351  0.14219  0.16898
H18    H 1 a    0.73649  0.85781  0.16898
H19    H 1 a    0.64219  0.73649  0.91898
H20    H 1 a    0.35781  0.76351  0.33102
H21    H 1 a    0.26351  0.64219  0.08102
H22    H 1 a    0.73649  0.35781  0.08102
H23    H 1 a    0.64219  0.23649  0.33102
