data_findsym-output
_audit_creation_method FINDSYM

_cell_length_a     4.9411011000
_cell_length_b     4.9411011000
_cell_length_c     10.9895659000
_cell_angle_alpha  90.0000000000
_cell_angle_beta   90.0000000000
_cell_angle_gamma  90.0000000000
_cell_volume       268.3045377580

_symmetry_space_group_name_Hall "-I 4ad"
_symmetry_Int_Tables_number 88
loop_
_space_group_symop_id
_space_group_symop_operation_xyz
1 x,y,z
2 -x,-y+1/2,z
3 -y+3/4,x+1/4,z+1/4
4 y+1/4,-x+1/4,z+1/4
5 -x,-y,-z
6 x,y+1/2,-z
7 y+1/4,-x+3/4,-z+3/4
8 -y+3/4,x+3/4,-z+3/4
9 x+1/2,y+1/2,z+1/2
10 -x+1/2,-y,z+1/2
11 -y+1/4,x+3/4,z+3/4
12 y+3/4,-x+3/4,z+3/4
13 -x+1/2,-y+1/2,-z+1/2
14 x+1/2,y,-z+1/2
15 y+3/4,-x+1/4,-z+1/4
16 -y+1/4,x+1/4,-z+1/4

loop_
_atom_site_label
_atom_site_type_symbol
_atom_site_symmetry_multiplicity
_atom_site_Wyckoff_symbol
_atom_site_fract_x
_atom_site_fract_y
_atom_site_fract_z
_atom_site_occupancy
_atom_site_fract_symmform
Na1 Na   4 b  0.00000  0.25000  0.62500  1.00000 0,0,0    
Al1 Al   4 a  0.00000  0.25000  0.12500  1.00000 0,0,0    
H1  H   16 f  0.35781  0.01351  0.29398  1.00000 Dx,Dy,Dz 
