# CIF file created by FINDSYM, version 7.1.3

data_findsym-output
_audit_creation_method FINDSYM

_cell_length_a     9.4046447000
_cell_length_b     9.4046447000
_cell_length_c     14.396015000
_cell_angle_alpha  90.0000000000
_cell_angle_beta   90.0000000000
_cell_angle_gamma  90.0000000000
_cell_volume       1273.2892734969
                  

_symmetry_space_group_name_H-M "P 4/m 21/n 2/c"
_symmetry_Int_Tables_number 128
_space_group.reference_setting '128:-P 4 2n'
_space_group.transform_Pp_abc a,b,c;0,0,0

loop_
_space_group_symop_id
_space_group_symop_operation_xyz
1 x,y,z
2 x+1/2,-y+1/2,-z+1/2
3 -x+1/2,y+1/2,-z+1/2
4 -x,-y,z
5 -y+1/2,-x+1/2,-z+1/2
6 -y,x,z
7 y,-x,z
8 y+1/2,x+1/2,-z+1/2
9 -x,-y,-z
10 -x+1/2,y+1/2,z+1/2
11 x+1/2,-y+1/2,z+1/2
12 x,y,-z
13 y+1/2,x+1/2,z+1/2
14 y,-x,-z
15 -y,x,-z
16 -y+1/2,-x+1/2,z+1/2

loop_
_atom_site_label
_atom_site_type_symbol
_atom_site_symmetry_multiplicity
_atom_site_Wyckoff_symbol
_atom_site_fract_x
_atom_site_fract_y
_atom_site_fract_z
_atom_site_occupancy
_atom_site_fract_symmform
Na+1  Na+    2 a  0.00000  0.00000  0.00000  1.00000 0,0,0    
Na+2  Na+    8 g  0.78735  0.28735  0.25000  1.00000 Dx,Dx,0  
Ga3+1 Ga3+   2 b  0.00000  0.00000  0.50000  1.00000 0,0,0    
Ga3+2 Ga3+   4 c  0.00000  0.50000  0.00000  1.00000 0,0,0    
H-1   H-    16 i  0.04380  0.32005  0.11751  1.00000 Dx,Dy,Dz 
H-2   H-     4 e  0.00000  0.00000  0.32950  1.00000 0,0,Dz   
H-3   H-     8 h  0.25237  0.57512  0.00000  1.00000 Dx,Dy,0  

# end of cif
